<?xml version="1.0" encoding="UTF-8"?>

<!-- generated on 土 12/26 21:45:38 2020 by Eclipse SUMO netedit Version 1.7.0
<configuration xmlns:xsi="http://www.w3.org/2001/XMLSchema-instance" xsi:noNamespaceSchemaLocation="http://sumo.dlr.de/xsd/netconvertConfiguration.xsd">

    <input>
        <sumo-net-file value="hello.net.xml"/>
    </input>

    <output>
        <output-file value="hello.net.xml"/>
    </output>

    <processing>
        <geometry.min-radius.fix.railways value="false"/>
        <geometry.max-grade.fix value="false"/>
        <offset.disable-normalization value="true"/>
        <lefthand value="false"/>
    </processing>

    <junctions>
        <no-turnarounds value="true"/>
        <junctions.corner-detail value="0"/>
        <junctions.limit-turn-speed value="-1"/>
        <rectangular-lane-cut value="false"/>
    </junctions>

    <pedestrian>
        <walkingareas value="false"/>
    </pedestrian>

    <report>
        <aggregate-warnings value="5"/>
    </report>

</configuration>
-->

<net version="1.6" xmlns:xsi="http://www.w3.org/2001/XMLSchema-instance" xsi:noNamespaceSchemaLocation="http://sumo.dlr.de/xsd/net_file.xsd">

    <location netOffset="250.00,0.00" convBoundary="0.00,-12.00,510.00,0.00" origBoundary="-250.00,0.00,251.00,0.00" projParameter="!"/>

    <edge id=":2_0" function="internal">
        <lane id=":2_0_0" index="0" speed="13.89" length="4.58" shape="504.63,-11.20 505.87,-11.31 506.96,-11.64 507.91,-12.18 508.71,-12.95"/>
    </edge>
    <edge id=":2_1" function="internal">
        <lane id=":2_1_0" index="0" speed="13.89" length="5.68" shape="504.63,-8.00 506.29,-8.05 507.43,-8.30 508.46,-8.86 509.79,-9.88"/>
    </edge>
    <edge id=":2_2" function="internal">
        <lane id=":2_2_0" index="0" speed="13.89" length="7.05" shape="504.63,-4.80 506.71,-4.85 508.12,-5.06 509.50,-5.52 511.43,-6.30"/>
    </edge>
    <edge id=":2_3" function="internal">
        <lane id=":2_3_0" index="0" speed="13.90" length="5.25" shape="504.63,-1.60 509.87,-1.60"/>
    </edge>

    <edge id="1to2" from="1" to="2" priority="-1">
        <lane id="1to2_0" index="0" speed="13.90" length="504.63" shape="0.00,-11.20 504.63,-11.20"/>
        <lane id="1to2_1" index="1" speed="13.90" length="504.63" shape="0.00,-8.00 504.63,-8.00"/>
        <lane id="1to2_2" index="2" speed="13.90" length="504.63" shape="0.00,-4.80 504.63,-4.80"/>
        <lane id="1to2_3" index="3" speed="13.90" length="504.63" shape="0.00,-1.60 504.63,-1.60"/>
    </edge>
    <edge id="gneE7" from="2" to="gneJ13" priority="-1">
        <lane id="gneE7_0" index="0" speed="13.89" length="0.20" shape="511.43,-6.30 511.62,-6.37"/>
    </edge>
    <edge id="gneE8" from="2" to="gneJ14" priority="-1">
        <lane id="gneE8_0" index="0" speed="13.89" length="0.20" shape="509.79,-9.88 509.95,-10.01"/>
    </edge>
    <edge id="gneE9" from="2" to="gneJ15" priority="-1">
        <lane id="gneE9_0" index="0" speed="13.89" length="0.10" shape="508.71,-12.95 508.77,-13.02"/>
    </edge>
    <edge id="out" from="2" to="3" priority="-1">
        <lane id="out_0" index="0" speed="13.90" length="0.13" shape="509.87,-1.60 510.00,-1.60"/>
    </edge>

    <junction id="1" type="dead_end" x="0.00" y="0.00" incLanes="" intLanes="" shape="0.00,0.00 0.00,-12.80"/>
    <junction id="2" type="priority" x="500.00" y="0.00" incLanes="1to2_0 1to2_1 1to2_2 1to2_3" intLanes=":2_0_0 :2_1_0 :2_2_0 :2_3_0" shape="509.87,0.00 509.87,-3.20 514.73,-5.89 507.70,-14.24 504.63,-12.80 504.63,0.00">
        <request index="0" response="0000" foes="0000" cont="0"/>
        <request index="1" response="0000" foes="0000" cont="0"/>
        <request index="2" response="0000" foes="0000" cont="0"/>
        <request index="3" response="0000" foes="0000" cont="0"/>
    </junction>
    <junction id="3" type="dead_end" x="510.00" y="0.00" incLanes="out_0" intLanes="" shape="510.00,-3.20 510.00,0.00"/>
    <junction id="gneJ13" type="dead_end" x="510.00" y="-4.00" incLanes="gneE7_0" intLanes="" shape="508.81,-6.97 510.00,-4.00"/>
    <junction id="gneJ14" type="dead_end" x="510.00" y="-8.00" incLanes="gneE8_0" intLanes="" shape="508.00,-10.50 510.00,-8.00"/>
    <junction id="gneJ15" type="dead_end" x="510.00" y="-12.00" incLanes="gneE9_0" intLanes="" shape="507.54,-14.05 510.00,-12.00"/>

    <connection from="1to2" to="gneE9" fromLane="0" toLane="0" via=":2_0_0" dir="r" state="M"/>
    <connection from="1to2" to="gneE8" fromLane="1" toLane="0" via=":2_1_0" dir="R" state="M"/>
    <connection from="1to2" to="gneE7" fromLane="2" toLane="0" via=":2_2_0" dir="R" state="M"/>
    <connection from="1to2" to="out" fromLane="3" toLane="0" via=":2_3_0" dir="s" state="M"/>

    <connection from=":2_0" to="gneE9" fromLane="0" toLane="0" dir="r" state="M"/>
    <connection from=":2_1" to="gneE8" fromLane="0" toLane="0" dir="R" state="M"/>
    <connection from=":2_2" to="gneE7" fromLane="0" toLane="0" dir="R" state="M"/>
    <connection from=":2_3" to="out" fromLane="0" toLane="0" dir="s" state="M"/>

</net>
