<?xml version="1.0" encoding="UTF-8"?>

<!-- generated on 2021年01月14日 16時33分15秒 by Eclipse SUMO netedit Version 1.7.0
<configuration xmlns:xsi="http://www.w3.org/2001/XMLSchema-instance" xsi:noNamespaceSchemaLocation="http://sumo.dlr.de/xsd/netconvertConfiguration.xsd">

    <input>
        <sumo-net-file value="hello.net.xml"/>
    </input>

    <output>
        <output-file value="hello.net.xml"/>
        <output.street-names value="true"/>
    </output>

    <processing>
        <geometry.min-radius.fix.railways value="false"/>
        <geometry.max-grade.fix value="false"/>
        <offset.disable-normalization value="true"/>
        <lefthand value="false"/>
    </processing>

    <junctions>
        <no-turnarounds value="true"/>
        <junctions.corner-detail value="0"/>
        <junctions.limit-turn-speed value="-1"/>
        <rectangular-lane-cut value="false"/>
    </junctions>

    <pedestrian>
        <walkingareas value="false"/>
    </pedestrian>

    <report>
        <aggregate-warnings value="5"/>
    </report>

</configuration>
-->

<net version="1.6" xmlns:xsi="http://www.w3.org/2001/XMLSchema-instance" xsi:noNamespaceSchemaLocation="http://sumo.dlr.de/xsd/net_file.xsd">

    <location netOffset="250.00,0.00" convBoundary="0.00,-12.00,550.00,0.00" origBoundary="-250.00,0.00,251.00,0.00" projParameter="!"/>

    <edge id=":2_0" function="internal">
        <lane id=":2_0_0" index="0" speed="13.89" length="8.50" shape="535.62,-11.20 538.14,-11.22 539.87,-11.34 541.57,-11.64 544.02,-12.21"/>
    </edge>
    <edge id=":2_1" function="internal">
        <lane id=":2_1_0" index="0" speed="13.89" length="9.14" shape="535.62,-8.00 538.33,-8.02 540.19,-8.12 542.03,-8.35 544.71,-8.77"/>
    </edge>
    <edge id=":2_2" function="internal">
        <lane id=":2_2_0" index="0" speed="13.89" length="8.63" shape="535.62,-4.80 544.24,-5.14"/>
    </edge>
    <edge id=":2_3" function="internal">
        <lane id=":2_3_0" index="0" speed="13.90" length="8.38" shape="535.62,-1.60 544.00,-1.60"/>
    </edge>

    <edge id="1to2" from="1" to="2" name="1to2" priority="-1">
        <lane id="1to2_0" index="0" speed="13.90" length="535.62" shape="0.00,-11.20 535.62,-11.20"/>
        <lane id="1to2_1" index="1" speed="13.90" length="535.62" shape="0.00,-8.00 535.62,-8.00"/>
        <lane id="1to2_2" index="2" speed="13.90" length="535.62" shape="0.00,-4.80 535.62,-4.80"/>
        <lane id="1to2_3" index="3" speed="13.90" length="535.62" shape="0.00,-1.60 535.62,-1.60"/>
    </edge>
    <edge id="gneE7" from="2" to="gneJ13" name="gneE7" priority="-1">
        <lane id="gneE7_0" index="0" speed="13.89" length="5.65" shape="544.24,-5.14 549.87,-5.59"/>
    </edge>
    <edge id="gneE8" from="2" to="gneJ14" name="gneE8" priority="-1">
        <lane id="gneE8_0" index="0" speed="13.89" length="5.10" shape="544.71,-8.77 549.75,-9.58"/>
    </edge>
    <edge id="gneE9" from="2" to="gneJ15" name="gneE9" priority="-1">
        <lane id="gneE9_0" index="0" speed="13.89" length="5.76" shape="544.02,-12.21 549.63,-13.56"/>
    </edge>
    <edge id="out" from="2" to="3" name="out" priority="-1">
        <lane id="out_0" index="0" speed="13.90" length="6.00" shape="544.00,-1.60 550.00,-1.60"/>
    </edge>

    <junction id="1" type="dead_end" x="0.00" y="0.00" incLanes="" intLanes="" shape="0.00,0.00 0.00,-12.80"/>
    <junction id="2" type="priority" x="500.00" y="0.00" incLanes="1to2_0 1to2_1 1to2_2 1to2_3" intLanes=":2_0_0 :2_1_0 :2_2_0 :2_3_0" shape="544.00,0.00 544.00,-3.20 544.37,-3.55 544.12,-6.74 544.96,-7.19 544.46,-10.35 544.40,-10.66 543.65,-13.77 535.62,-12.80 535.62,0.00">
        <request index="0" response="0000" foes="0000" cont="0"/>
        <request index="1" response="0000" foes="0000" cont="0"/>
        <request index="2" response="0000" foes="0000" cont="0"/>
        <request index="3" response="0000" foes="0000" cont="0"/>
    </junction>
    <junction id="3" type="dead_end" x="550.00" y="0.00" incLanes="out_0" intLanes="" shape="550.00,-3.20 550.00,0.00"/>
    <junction id="gneJ13" type="dead_end" x="550.00" y="-4.00" incLanes="gneE7_0" intLanes="" shape="549.74,-7.19 550.00,-4.00"/>
    <junction id="gneJ14" type="dead_end" x="550.00" y="-8.00" incLanes="gneE8_0" intLanes="" shape="549.49,-11.16 550.00,-8.00"/>
    <junction id="gneJ15" type="dead_end" x="550.00" y="-12.00" incLanes="gneE9_0" intLanes="" shape="549.25,-15.11 550.00,-12.00"/>

    <connection from="1to2" to="gneE9" fromLane="0" toLane="0" via=":2_0_0" dir="s" state="M"/>
    <connection from="1to2" to="gneE8" fromLane="1" toLane="0" via=":2_1_0" dir="s" state="M"/>
    <connection from="1to2" to="gneE7" fromLane="2" toLane="0" via=":2_2_0" dir="s" state="M"/>
    <connection from="1to2" to="out" fromLane="3" toLane="0" via=":2_3_0" dir="s" state="M"/>

    <connection from=":2_0" to="gneE9" fromLane="0" toLane="0" dir="s" state="M"/>
    <connection from=":2_1" to="gneE8" fromLane="0" toLane="0" dir="s" state="M"/>
    <connection from=":2_2" to="gneE7" fromLane="0" toLane="0" dir="s" state="M"/>
    <connection from=":2_3" to="out" fromLane="0" toLane="0" dir="s" state="M"/>

</net>
